&NAMOBJ
  L_OOPS=.TRUE.,
/
&NAMFA
  NVGRIB=2,
/
