&NAMARG
/
&NAMOBS
  LCAPACH=.FALSE.,
  LOLDPP=.TRUE.,
/
&NAMDIM
  NPROMA=-24,
  NFLEV=137,
/
&NAMKEPT
  USELESS='YES',
/
&NAMRIP
  CSTOP='h1',
/
