&NAERAD
/
&NAMDYN
  LNHDYN=.TRUE.,
/
&NAMRIP
  CSTOP='h6',
/
&NAMFA
  NBITCS=16,
  NBITPG=24,
  NSTRON=1,
/
&NAMINI
  NSTEP=__VAL_TO_SUBSTITUTE__,
  LDFI=.TRUE.,
/
&NAMGHOST
  SHOULD_NOT=.TRUE.,
/
